@<TRIPOS>MOLECULE
E:\github_autodataing\perl-\project\obabelWEB\obabelwebProjectSingle\obabelwebProjectTest\pdb2mol2APP\upload\1.pdb
 38 41 0 0 0
SMALL
GASTEIGER

@<TRIPOS>ATOM
      1  N1        21.0910   28.7350   14.0670 Npl   402  017402     -0.1281
      2  C2        20.5400   27.5660   14.5190 Car   402  017402      0.0892
      3  C3        19.1880   27.3330   14.2100 Car   402  017402      0.0194
      4  C4        18.6260   26.1600   14.6750 Car   402  017402      0.0213
      5  C5        19.3840   25.2160   15.3450 Car   402  017402      0.1223
      6  C6        20.7110   25.4230   15.7210 Car   402  017402      0.0213
      7  C7        21.2630   26.6460   15.2920 Car   402  017402      0.0194
      8  S8        18.4500   23.7990   15.9930 So2   402  017402      0.0634
      9  O9        17.2570   23.4660   15.0690 O2    402  017402     -0.1528
     10  O10       19.4810   22.6380   16.2400 O2    402  017402     -0.1528
     11  N11       17.7940   24.1570   17.5840 N3    402  017402     -0.1529
     12  C12       18.7830   24.4260   18.6320 C3    402  017402      0.0958
     13  C13       18.4000   23.8560   20.0060 C3    402  017402      0.0178
     14  C14       18.3680   22.3520   19.8930 C3    402  017402      0.0015
     15  C15       19.5030   24.3350   20.9200 C3    402  017402      0.0015
     16  C16       16.5050   24.8940   17.5640 C3    402  017402      0.1304
     17  C17       15.3940   23.9640   18.1580 C3    402  017402      0.1898
     18  O18       14.2320   24.7640   18.4090 O3    402  017402     -0.2197
     19  C19       15.0130   22.8280   17.1770 C3    402  017402      0.1347
     20  N20       14.1320   21.9410   17.8870 Nam   402  017402     -0.1675
     21  C21       14.4880   20.6750   18.2230 C2    402  017402      0.4211
     22  O22       15.5870   20.0860   17.9550 O2    402  017402     -0.2246
     23  O23       13.4210   20.0660   18.9520 O3    402  017402     -0.4345
     24  C24       13.5050   18.6020   19.1020 C3    402  017402      0.2048
     25  C25       12.8390   18.3510   20.4850 C3    402  017402      0.1884
     26  O26       11.4120   18.4700   20.2840 O3    402  017402     -0.3265
     27  C27       11.2200   17.9780   18.9680 C3    402  017402      0.2388
     28  O28       10.2970   18.8060   18.2910 O3    402  017402     -0.3304
     29  C29       11.0420   19.4440   17.2410 C3    402  017402      0.1451
     30  C30       12.1310   18.4320   16.8180 C3    402  017402      0.0409
     31  C31       12.4700   17.8870   18.2130 C3    402  017402      0.1016
     32  C32       14.2940   23.2850   15.8960 C3    402  017402      0.0508
     33  C33       12.5490   21.7500   14.8810 Car   402  017402     -0.0042
     34  C34       12.1480   20.6610   14.0690 Car   402  017402     -0.0003
     35  C35       13.1190   19.9330   13.3910 Car   402  017402     -0.0000
     36  C36       14.4710   20.2400   13.5170 Car   402  017402     -0.0003
     37  C37       14.8600   21.3260   14.3140 Car   402  017402     -0.0042
     38  C38       13.9020   22.1140   14.9680 Car   402  017402     -0.0204
@<TRIPOS>BOND
     1     1     2    1
     2     2     3   ar
     3     2     7   ar
     4     3     4   ar
     5     4     5   ar
     6     5     6   ar
     7     5     8    1
     8     6     7   ar
     9     8     9    2
    10     8    10    2
    11     8    11    1
    12    11    12    1
    13    11    16    1
    14    12    13    1
    15    13    14    1
    16    13    15    1
    17    16    17    1
    18    17    18    1
    19    17    19    1
    20    19    20    1
    21    19    32    1
    22    20    21   am
    23    21    22    2
    24    21    23    1
    25    23    24    1
    26    24    25    1
    27    24    31    1
    28    25    26    1
    29    26    27    1
    30    27    28    1
    31    27    31    1
    32    28    29    1
    33    29    30    1
    34    30    31    1
    35    32    38    1
    36    33    34   ar
    37    33    38   ar
    38    34    35   ar
    39    35    36   ar
    40    36    37   ar
    41    37    38   ar
