@<TRIPOS>MOLECULE
E:\github_autodataing\perl-\project\obabelWEB\obabelwebProjectSingle\obabelwebProjectTest\pdb2mol2APP\upload\33.pdb
 31 32 0 0 0
SMALL
GASTEIGER

@<TRIPOS>ATOM
      1  N1         6.3400   -0.3720    0.8010 Nar     0  UNK0       -0.2000
      2  O2        -0.1900    2.3520   -1.5740 O2      0  UNK0        0.0000
      3  S3        -0.0970    1.7880   -0.2500 So2     0  UNK0        0.0000
      4  O4        -0.1510    2.7010    0.8660 O2      0  UNK0        0.0000
      5  N5        -1.2070    0.6230   -0.1660 N3      0  UNK0        0.0000
      6  C6        -1.6200    0.0180    1.1100 C3      0  UNK0        0.0000
      7  B7        -3.1230   -0.5960    0.9820 B2      0  UNK0        0.0000
      8  O8        -3.5340   -1.3500    2.0300 O3      0  UNK0        0.0000
      9  O9        -3.8290   -0.2940   -0.1000 O3      0  UNK0        0.0000
     10  C10        1.4680    0.9550   -0.1150 Car     0  UNK0        0.0000
     11  C11        1.8050   -0.0590   -1.0040 Car     0  UNK0        0.0000
     12  C12        3.0680   -0.6180   -0.9690 Car     0  UNK0        0.0000
     13  C13        4.0260   -0.1750   -0.0520 Car     0  UNK0        0.0000
     14  C14        3.6660    0.8280    0.8430 Car     0  UNK0        0.0000
     15  C15        2.4000    1.3910    0.8120 Car     0  UNK0        0.0000
     16  C16        5.3870   -0.7450   -0.0370 Car     0  UNK0       -0.2000
     17  N17        7.3780   -1.1060    0.4660 Nar     0  UNK0       -0.2000
     18  N18        7.0690   -1.8780   -0.5180 Nar     0  UNK0       -0.2000
     19  N19        5.8170   -1.6790   -0.8660 Nar     0  UNK0       -0.2000
     20  P20       -5.5150   -0.7680   -0.4000 Pac     0  UNK0        0.0000
     21  O21       -5.7820   -1.6320    0.8290 O2      0  UNK0        0.0000
     22  O22       -5.4210   -1.5150   -1.6900 O3      0  UNK0        0.0000
     23  O23       -6.2260    0.5470   -0.4110 O3      0  UNK0        0.0000
     24  H24       -1.9750    0.7740   -0.7970 H       0  UNK0        0.0000
     25  H25       -1.6160    0.7650    1.9000 H       0  UNK0        0.0000
     26  H26       -0.9050   -0.7500    1.3900 H       0  UNK0        0.0000
     27  H27       -4.4580   -1.5970    1.7740 HO      0  UNK0        0.0000
     28  H28        1.0780   -0.4050   -1.7140 H       0  UNK0        0.0000
     29  H29        3.3330   -1.3990   -1.6560 H       0  UNK0        0.0000
     30  H30        4.3920    1.1690    1.5570 H       0  UNK0        0.0000
     31  H31        2.1310    2.1700    1.4970 H       0  UNK0        0.0000
@<TRIPOS>BOND
     1     1    16   ar
     2     1    17   ar
     3     2     3    2
     4     3     4    2
     5     3     5    1
     6     3    10    1
     7     5     6    1
     8     5    24    1
     9     6     7    1
    10     6    25    1
    11     6    26    1
    12     7     8    1
    13     7     9    1
    14     8    27    1
    15     9    20    1
    16    10    11   ar
    17    10    15   ar
    18    11    12   ar
    19    11    28    1
    20    12    13   ar
    21    12    29    1
    22    13    14   ar
    23    13    16    1
    24    14    15   ar
    25    14    30    1
    26    15    31    1
    27    16    19   ar
    28    17    18   ar
    29    18    19   ar
    30    20    21    2
    31    20    22    1
    32    20    23    1
